<?xml version="1.0" encoding="UTF-8"?>

<!-- generated on 2025-03-26 13:35:02 by Eclipse SUMO netedit Version 1.22.0
-->

<routes xmlns:xsi="http://www.w3.org/2001/XMLSchema-instance" xsi:noNamespaceSchemaLocation="http://sumo.dlr.de/xsd/routes_file.xsd">
    <!-- VTypes -->
    <vType id="standard_car" length="5.00" minGap="2.50" maxSpeed="25.00" accel="1.0" decel="4.5" sigma="0.5"/>
    <!-- Vehicles, persons and containers (sorted by depart) -->
    <flow id="f_0" begin="0.00" from="E0" to="E0" via="E1 -E2 E3" number="25" vehsPerHour="1800"/>
    <flow id="f_1" begin="0.00" from="E1" to="E1" via="-E2 E3 E0" number="25" vehsPerHour="1800"/>
    <flow id="f_2" begin="0.00" from="-E2" to="-E2" via="E3 E0 E1" number="25" vehsPerHour="1800"/>
    <flow id="f_3" begin="0.00" from="E3" to="E3" via="E0 E1 -E2" number="25" vehsPerHour="1800"/>
</routes>
